<?xml version="1.0" encoding="UTF-8"?>

<!-- generated on 2024-10-24 17:57:17 by Eclipse SUMO netedit Version 1.20.0
<configuration xmlns:xsi="http://www.w3.org/2001/XMLSchema-instance" xsi:noNamespaceSchemaLocation="http://sumo.dlr.de/xsd/neteditConfiguration.xsd">

    <input>
        <sumocfg-file value="C:\Users\hamza\Desktop\ESI 5\RL\TP\PROJECT\MyProject\my_simulation.sumocfg"/>
        <route-files value="C:\Users\hamza\Desktop\ESI 5\RL\TP\PROJECT\MyProject\my_simulation.rou.xml"/>
        <sumo-net-file value="C:\Users\hamza\Desktop\ESI 5\RL\TP\PROJECT\MyProject\my_network.net.xml"/>
    </input>

    <output>
        <output-file value="C:\Users\hamza\Desktop\ESI 5\RL\TP\PROJECT\MyProject\my_network.net.xml"/>
    </output>

    <processing>
        <geometry.min-radius.fix.railways value="false"/>
        <geometry.max-grade.fix value="false"/>
        <offset.disable-normalization value="true"/>
        <lefthand value="0"/>
    </processing>

    <junctions>
        <no-turnarounds value="true"/>
        <junctions.corner-detail value="5"/>
        <junctions.limit-turn-speed value="5.50"/>
        <rectangular-lane-cut value="0"/>
    </junctions>

    <pedestrian>
        <walkingareas value="0"/>
    </pedestrian>

</configuration>
-->

<net version="1.20" junctionCornerDetail="5" limitTurnSpeed="5.50" xmlns:xsi="http://www.w3.org/2001/XMLSchema-instance" xsi:noNamespaceSchemaLocation="http://sumo.dlr.de/xsd/net_file.xsd">

    <location netOffset="0.00,0.00" convBoundary="-100.00,0.00,100.00,100.00" origBoundary="-10000000000.00,-10000000000.00,10000000000.00,10000000000.00" projParameter="!"/>

    <edge id=":J11_0" function="internal">
        <lane id=":J11_0_0" index="0" speed="13.89" length="7.84" shape="-6.18,-8.00 1.66,-8.00"/>
        <lane id=":J11_0_1" index="1" speed="13.89" length="7.84" shape="-6.18,-4.80 1.66,-4.80"/>
        <lane id=":J11_0_2" index="2" speed="13.89" length="7.84" shape="-6.18,-1.60 1.66,-1.60"/>
    </edge>
    <edge id=":J11_3" function="internal">
        <lane id=":J11_3_0" index="0" speed="10.20" length="9.48" shape="-4.57,2.30 -3.44,0.89 -1.56,-1.51 0.36,-3.79 1.66,-4.80"/>
        <lane id=":J11_3_1" index="1" speed="9.11" length="7.49" shape="-4.57,2.30 -2.71,0.60 -1.06,-0.62 0.40,-1.36 1.66,-1.60"/>
    </edge>

    <edge id="E6" from="J10" to="J11" priority="-1">
        <lane id="E6_0" index="0" speed="13.89" length="93.82" shape="-100.00,-8.00 -6.18,-8.00"/>
        <lane id="E6_1" index="1" speed="13.89" length="93.82" shape="-100.00,-4.80 -6.18,-4.80"/>
        <lane id="E6_2" index="2" speed="13.89" length="93.82" shape="-100.00,-1.60 -6.18,-1.60"/>
    </edge>
    <edge id="E7" from="J11" to="J12" priority="-1">
        <lane id="E7_0" index="0" speed="13.89" length="98.34" shape="1.66,-8.00 100.00,-8.00"/>
        <lane id="E7_1" index="1" speed="13.89" length="98.34" shape="1.66,-4.80 100.00,-4.80"/>
        <lane id="E7_2" index="2" speed="13.89" length="98.34" shape="1.66,-1.60 100.00,-1.60"/>
    </edge>
    <edge id="E8" from="J13" to="J11" priority="-1">
        <lane id="E8_0" index="0" speed="13.89" length="136.56" shape="-101.13,98.87 -4.57,2.30"/>
    </edge>

    <junction id="J10" type="dead_end" x="-100.00" y="0.00" incLanes="" intLanes="" shape="-100.00,0.00 -100.00,-9.60"/>
    <junction id="J11" type="priority" x="0.00" y="0.00" incLanes="E6_0 E6_1 E6_2 E8_0" intLanes=":J11_0_0 :J11_0_1 :J11_0_2 :J11_3_0 :J11_3_1" shape="1.66,0.00 1.66,-9.60 -6.18,-9.60 -6.18,0.00 -5.39,0.13 -5.23,0.29 -5.23,0.52 -5.39,0.81 -5.70,1.17 -3.43,3.43 -1.34,1.53 -0.44,0.86 0.35,0.38 1.06,0.10">
        <request index="0" response="00000" foes="11000" cont="0"/>
        <request index="1" response="00000" foes="11000" cont="0"/>
        <request index="2" response="00000" foes="11000" cont="0"/>
        <request index="3" response="00111" foes="00111" cont="0"/>
        <request index="4" response="00111" foes="00111" cont="0"/>
    </junction>
    <junction id="J12" type="dead_end" x="100.00" y="0.00" incLanes="E7_0 E7_1 E7_2" intLanes="" shape="100.00,-9.60 100.00,0.00"/>
    <junction id="J13" type="dead_end" x="-100.00" y="100.00" incLanes="" intLanes="" shape="-100.00,100.00 -102.26,97.74"/>

    <connection from="E6" to="E7" fromLane="0" toLane="0" via=":J11_0_0" dir="s" state="M"/>
    <connection from="E6" to="E7" fromLane="1" toLane="1" via=":J11_0_1" dir="s" state="M"/>
    <connection from="E6" to="E7" fromLane="2" toLane="2" via=":J11_0_2" dir="s" state="M"/>
    <connection from="E8" to="E7" fromLane="0" toLane="1" via=":J11_3_0" dir="l" state="m"/>
    <connection from="E8" to="E7" fromLane="0" toLane="2" via=":J11_3_1" dir="l" state="m"/>

    <connection from=":J11_0" to="E7" fromLane="0" toLane="0" dir="s" state="M"/>
    <connection from=":J11_0" to="E7" fromLane="1" toLane="1" dir="s" state="M"/>
    <connection from=":J11_0" to="E7" fromLane="2" toLane="2" dir="s" state="M"/>
    <connection from=":J11_3" to="E7" fromLane="0" toLane="1" dir="l" state="M"/>
    <connection from=":J11_3" to="E7" fromLane="1" toLane="2" dir="l" state="M"/>

</net>
