<?xml version="1.0" encoding="UTF-8"?>

<!-- generated on 2024-10-24 18:25:55 by Eclipse SUMO GUI Version 1.20.0
-->

<configuration xmlns:xsi="http://www.w3.org/2001/XMLSchema-instance" xsi:noNamespaceSchemaLocation="http://sumo.dlr.de/xsd/sumoConfiguration.xsd">

    <input>
        <net-file value="my_network.net.xml"/>
        <route-files value="my_simulation.rou.xml"/>
    </input>

</configuration>
