<?xml version="1.0" encoding="UTF-8"?>

<!-- generated on 2024-10-24 17:55:28 by Eclipse SUMO netedit Version 1.20.0
-->

<routes xmlns:xsi="http://www.w3.org/2001/XMLSchema-instance" xsi:noNamespaceSchemaLocation="http://sumo.dlr.de/xsd/routes_file.xsd">
    <!-- Vehicles, persons and containers (sorted by depart) -->
    <flow id="f_0" begin="0.00" arrivalLane="random" color="red" from="E8" to="E7" end="3600.00" probability="0.10000000000000000555"/>
    <flow id="f_1" begin="0.00" color="green" from="E6" to="E7" end="3600.00" probability="0.10000000000000000555"/>
    <flow id="f_2" begin="0.00" departLane="1" departPos="0.00" line="2" from="E6" to="E7" end="3600.00" probability="0.10000000000000000555"/>
    <flow id="f_3" begin="0.00" departLane="2" color="blue" from="E6" to="E7" end="3600.00" probability="0.10000000000000000555"/>
</routes>
