<?xml version="1.0" encoding="UTF-8"?>

<!-- generated on 2024-12-30 17:58:02 by Eclipse SUMO netedit Version 1.20.0
<configuration xmlns:xsi="http://www.w3.org/2001/XMLSchema-instance" xsi:noNamespaceSchemaLocation="http://sumo.dlr.de/xsd/neteditConfiguration.xsd">

    <input>
        <sumocfg-file value="C:\Users\hamza\Desktop\ESI 5\RL\TP\PROJECT\MyProject\RL-Traffic-Optimization\config\my_simulation.sumocfg"/>
        <route-files value="C:\Users\hamza\Desktop\ESI 5\RL\TP\PROJECT\MyProject\RL-Traffic-Optimization\config\my_simulation.rou.xml"/>
        <sumo-net-file value="C:\Users\hamza\Desktop\ESI 5\RL\TP\PROJECT\MyProject\RL-Traffic-Optimization\config\my_network.net.xml"/>
    </input>

    <output>
        <output-file value="C:\Users\hamza\Desktop\ESI 5\RL\TP\PROJECT\MyProject\RL-Traffic-Optimization\config\my_network.net.xml"/>
    </output>

    <processing>
        <geometry.min-radius.fix.railways value="false"/>
        <geometry.max-grade.fix value="false"/>
        <offset.disable-normalization value="true"/>
        <lefthand value="0"/>
    </processing>

    <junctions>
        <no-turnarounds value="true"/>
        <junctions.corner-detail value="5"/>
        <junctions.limit-turn-speed value="5.50"/>
        <rectangular-lane-cut value="0"/>
    </junctions>

    <pedestrian>
        <walkingareas value="0"/>
    </pedestrian>

</configuration>
-->

<net version="1.20" junctionCornerDetail="5" limitTurnSpeed="5.50" xmlns:xsi="http://www.w3.org/2001/XMLSchema-instance" xsi:noNamespaceSchemaLocation="http://sumo.dlr.de/xsd/net_file.xsd">

    <location netOffset="0.00,0.00" convBoundary="-100.00,-100.00,100.00,0.00" origBoundary="-10000000000.00,-10000000000.00,10000000000.00,10000000000.00" projParameter="!"/>

    <edge id=":J11_0" function="internal">
        <lane id=":J11_0_0" index="0" speed="10.20" length="9.48" shape="-9.64,-11.90 -8.51,-10.49 -6.64,-8.09 -4.71,-5.81 -3.42,-4.80"/>
        <lane id=":J11_0_1" index="1" speed="12.13" length="13.60" shape="-9.64,-11.90 -5.39,-7.40 -2.93,-4.18 -2.28,-2.24 -3.42,-1.60"/>
    </edge>
    <edge id=":J11_2" function="internal">
        <lane id=":J11_2_0" index="0" speed="13.89" length="7.84" shape="-11.26,-8.00 -3.42,-8.00"/>
        <lane id=":J11_2_1" index="1" speed="13.89" length="7.84" shape="-11.26,-4.80 -3.42,-4.80"/>
        <lane id=":J11_2_2" index="2" speed="13.89" length="7.84" shape="-11.26,-1.60 -3.42,-1.60"/>
    </edge>

    <edge id="E6" from="J10" to="J11" priority="-1">
        <lane id="E6_0" index="0" speed="13.89" length="88.74" shape="-100.00,-8.00 -11.26,-8.00"/>
        <lane id="E6_1" index="1" speed="13.89" length="88.74" shape="-100.00,-4.80 -11.26,-4.80"/>
        <lane id="E6_2" index="2" speed="13.89" length="88.74" shape="-100.00,-1.60 -11.26,-1.60"/>
    </edge>
    <edge id="E7" from="J11" to="J12" priority="-1">
        <lane id="E7_0" index="0" speed="13.89" length="103.42" shape="-3.42,-8.00 100.00,-8.00"/>
        <lane id="E7_1" index="1" speed="13.89" length="103.42" shape="-3.42,-4.80 100.00,-4.80"/>
        <lane id="E7_2" index="2" speed="13.89" length="103.42" shape="-3.42,-1.60 100.00,-1.60"/>
    </edge>
    <edge id="E8" from="J13" to="J11" priority="-1">
        <lane id="E8_0" index="0" speed="13.89" length="126.19" shape="-98.87,-101.13 -9.64,-11.90"/>
    </edge>

    <tlLogic id="J11" type="static" programID="0" offset="0">
        <phase duration="45" state="OOOrr"/>
        <phase duration="42" state="OOOGG"/>
    </tlLogic>

    <junction id="J10" type="dead_end" x="-100.00" y="0.00" incLanes="" intLanes="" shape="-100.00,0.00 -100.00,-9.60"/>
    <junction id="J11" type="traffic_light" x="0.00" y="0.00" incLanes="E8_0 E6_0 E6_1 E6_2" intLanes=":J11_0_0 :J11_0_1 :J11_2_0 :J11_2_1 :J11_2_2" shape="-3.42,0.00 -3.42,-9.60 -4.72,-9.98 -5.52,-10.46 -6.42,-11.13 -7.41,-11.98 -8.51,-13.03 -10.77,-10.77 -10.30,-10.12 -10.31,-9.89 -10.47,-9.73 -10.78,-9.63 -11.26,-9.60 -11.26,0.00">
        <request index="0" response="11100" foes="11100" cont="0"/>
        <request index="1" response="11100" foes="11100" cont="0"/>
        <request index="2" response="00000" foes="00011" cont="0"/>
        <request index="3" response="00000" foes="00011" cont="0"/>
        <request index="4" response="00000" foes="00011" cont="0"/>
    </junction>
    <junction id="J12" type="dead_end" x="100.00" y="0.00" incLanes="E7_0 E7_1 E7_2" intLanes="" shape="100.00,-9.60 100.00,0.00"/>
    <junction id="J13" type="dead_end" x="-100.00" y="-100.00" incLanes="" intLanes="" shape="-100.00,-100.00 -97.74,-102.26"/>

    <connection from="E6" to="E7" fromLane="0" toLane="0" via=":J11_2_0" tl="J11" linkIndex="0" dir="s" state="O"/>
    <connection from="E6" to="E7" fromLane="1" toLane="1" via=":J11_2_1" tl="J11" linkIndex="1" dir="s" state="O"/>
    <connection from="E6" to="E7" fromLane="2" toLane="2" via=":J11_2_2" tl="J11" linkIndex="2" dir="s" state="O"/>
    <connection from="E8" to="E7" fromLane="0" toLane="1" via=":J11_0_0" tl="J11" linkIndex="3" dir="r" state="o"/>
    <connection from="E8" to="E7" fromLane="0" toLane="2" via=":J11_0_1" tl="J11" linkIndex="4" dir="r" state="o"/>

    <connection from=":J11_0" to="E7" fromLane="0" toLane="1" dir="r" state="M"/>
    <connection from=":J11_0" to="E7" fromLane="1" toLane="2" dir="r" state="M"/>
    <connection from=":J11_2" to="E7" fromLane="0" toLane="0" dir="s" state="M"/>
    <connection from=":J11_2" to="E7" fromLane="1" toLane="1" dir="s" state="M"/>
    <connection from=":J11_2" to="E7" fromLane="2" toLane="2" dir="s" state="M"/>

</net>
